/*--------------------------------*- C++ -*----------------------------------*\
| =========                 |                                                 |
| \\      /  F ield         | OpenFOAM: The Open Source CFD Toolbox           |
|  \\    /   O peration     | Version:  2.3.0                                 |
|   \\  /    A nd           | Web:      www.OpenFOAM.org                      |
|    \\/     M anipulation  |                                                 |
\*---------------------------------------------------------------------------*/
FoamFile
{
    version     2.0;
    format      ascii;
    class       volScalarField;
    object      p;
}
// * * * * * * * * * * * * * * * * * * * * * * * * * * * * * * * * * * * * * //

dimensions      [0 2 -2 0 0 0 0];

internalField   uniform 0;

boundaryField
{

    fixedWalls
    {
        type            zeroGradient;
    }

    left
    {
        type            inletOutlet;
        inletValue      uniform 1e-5;
    }

    right
    {
        
        type            fixedValue;
        value           uniform 0;
    }

    bottom
    {
        type            cyclic;
    }

    top
    {
        type            cyclic;
    }

    front
    {
        type            cyclic;
    }
    
    back
    {
        type            cyclic;
    }
}

// ************************************************************************* //
